
  Chem3D 02040309212D

 37 37  0  0  0                 1 V2000
    0.1650   -2.5977   -0.0660 C   0  0  0  0  0  0  0  0  0  0  0  0
    0.1650   -4.0177   -0.0660 C   0  0  0  0  0  0  0  0  0  0  0  0
    1.3947   -4.7277   -0.0660 C   0  0  0  0  0  0  0  0  0  0  0  0
    2.6244   -4.0177   -0.0660 C   0  0  0  0  0  0  0  0  0  0  0  0
    2.6244   -2.5977   -0.0660 C   0  0  0  0  0  0  0  0  0  0  0  0
    1.3947   -1.8877   -0.0660 C   0  0  0  0  0  0  0  0  0  0  0  0
    1.3947   -0.3908   -0.0531 C   0  0  0  0  0  0  0  0  0  0  0  0
   -0.0324    0.1148   -0.0416 C   0  0  0  0  0  0  0  0  0  0  0  0
   -0.0426    1.6237   -0.0284 C   0  0  0  0  0  0  0  0  0  0  0  0
    2.0152    0.0938   -1.2360 O   0  0  0  0  0  0  0  0  0  0  0  0
   -0.7512   -0.4193    1.1903 C   0  0  0  0  0  0  0  0  0  0  0  0
   -1.7161    2.3262   -0.0140 S   0  0  0  0  0  0  0  0  0  0  0  0
    0.9581    2.3002   -0.0387 O   0  0  0  0  0  0  0  0  0  0  0  0
   -1.6123    4.1382    0.0012 C   0  0  0  0  0  0  0  0  0  0  0  0
   -0.8714    4.6029   -1.2457 C   0  0  0  0  0  0  0  0  0  0  0  0
   -0.8467    4.5806    1.2411 C   0  0  0  0  0  0  0  0  0  0  0  0
   -3.0216    4.7156   -0.0010 C   0  0  0  0  0  0  0  0  0  0  0  0
   -0.7876   -2.0477   -0.0565 H   0  0  0  0  0  0  0  0  0  0  0  0
   -0.7876   -4.5677   -0.0756 H   0  0  0  0  0  0  0  0  0  0  0  0
    1.3947   -5.8276   -0.0756 H   0  0  0  0  0  0  0  0  0  0  0  0
    3.5770   -4.5677   -0.0756 H   0  0  0  0  0  0  0  0  0  0  0  0
    3.5770   -2.0477   -0.0756 H   0  0  0  0  0  0  0  0  0  0  0  0
    1.9212   -0.0298    0.8562 H   0  0  0  0  0  0  0  0  0  0  0  0
   -0.5514   -0.2228   -0.9664 H   0  0  0  0  0  0  0  0  0  0  0  0
    1.5127   -0.2333   -1.9625 H   0  0  0  0  0  0  0  0  0  0  0  0
   -1.8019   -0.0523    1.2069 H   0  0  0  0  0  0  0  0  0  0  0  0
   -0.2325   -0.0749    2.1129 H   0  0  0  0  0  0  0  0  0  0  0  0
   -0.7563   -1.5321    1.1755 H   0  0  0  0  0  0  0  0  0  0  0  0
   -0.7982    5.7134   -1.2532 H   0  0  0  0  0  0  0  0  0  0  0  0
   -1.4149    4.2693   -2.1579 H   0  0  0  0  0  0  0  0  0  0  0  0
    0.1547    4.1720   -1.2615 H   0  0  0  0  0  0  0  0  0  0  0  0
   -0.7731    5.6909    1.2671 H   0  0  0  0  0  0  0  0  0  0  0  0
    0.1794    4.1497    1.2289 H   0  0  0  0  0  0  0  0  0  0  0  0
   -1.3719    4.2307    2.1579 H   0  0  0  0  0  0  0  0  0  0  0  0
   -2.9774    5.8276    0.0082 H   0  0  0  0  0  0  0  0  0  0  0  0
   -3.5770    4.3675    0.8985 H   0  0  0  0  0  0  0  0  0  0  0  0
   -3.5682    4.3822   -0.9115 H   0  0  0  0  0  0  0  0  0  0  0  0
  1  2  2  0
  1  6  1  0
  1 18  1  0
  2  3  1  0
  2 19  1  0
  3  4  2  0
  3 20  1  0
  4  5  1  0
  4 21  1  0
  5  6  2  0
  5 22  1  0
  6  7  1  0
  7  8  1  0
  7 10  1  6
  7 23  1  1
  8  9  1  0
  8 11  1  1
  8 24  1  6
  9 12  1  0
  9 13  2  0
 10 25  1  6
 11 26  1  0
 11 27  1  1
 11 28  1  0
 12 14  1  0
 14 15  1  6
 14 16  1  1
 14 17  1  0
 15 29  1  0
 15 30  1  6
 15 31  1  0
 16 32  1  0
 16 33  1  0
 16 34  1  1
 17 35  1  0
 17 36  1  1
 17 37  1  6
M  END
